[TITLE]
;;Project Title/Notes

[OPTIONS]
;;Option             Value
FLOW_UNITS           CFS
INFILTRATION         CURVE_NUMBER
FLOW_ROUTING         DYNWAVE
LINK_OFFSETS         DEPTH
MIN_SLOPE            0
ALLOW_PONDING        YES
SKIP_STEADY_STATE    NO

START_DATE           02/05/2020
START_TIME           00:00:00
REPORT_START_DATE    02/05/2020
REPORT_START_TIME    00:00:00
END_DATE             02/05/2020
END_TIME             11:00:00
SWEEP_START          1/1
SWEEP_END            12/31
DRY_DAYS             1
REPORT_STEP          0:15:00
WET_STEP             0:05:00
DRY_STEP             1:00:00
ROUTING_STEP         0:00:05 
RULE_STEP            12:00:00

INERTIAL_DAMPING     PARTIAL
NORMAL_FLOW_LIMITED  BOTH
FORCE_MAIN_EQUATION  D-W
VARIABLE_STEP        0.75
LENGTHENING_STEP     0
MIN_SURFAREA         12.566
MAX_TRIALS           8
HEAD_TOLERANCE       0.005
SYS_FLOW_TOL         5
LAT_FLOW_TOL         5
MINIMUM_STEP         0.5
THREADS              1

[EVAPORATION]
;;Data Source    Parameters
;;-------------- ----------------
CONSTANT         0
DRY_ONLY         NO

[RAINGAGES]
;;Name           Format    Interval SCF      Source    
;;-------------- --------- ------ ------ ----------
R1               VOLUME    0:15     1        TIMESERIES TS1             
R2               VOLUME    0:15     1        TIMESERIES TS6             

[SUBCATCHMENTS]
;;Name           Rain Gage        Outlet           Area     %Imperv  Width    %Slope   CurbLen  SnowPack        
;;-------------- ---------------- ---------------- -------- -------- -------- -------- -------- ----------------
1                R1               2                189.2294713 0        400      28.12488788 0                        
2                R1               J3               257.3832658 0.000927115 400      36.40935203 0                        
3                R1               J1               315.2854249 0        400      33.94600956 0                        
4                R1               54869            5.606208797 38.51763637 181.0683568 20.19128626 0                        
5                R1               3574             0.964370922 59.22528719 400      4.973907902 0                        
6                R1               47515            5.354158477 58.53240322 325.7368173 0        0                        
7                R1               34620            49.9144007 14.10178763 400      24.37085007 0                        
8                R1               29080            3.56657301 46.87794523 340.6274911 3.156830956 0                        
9                R1               33758            20.28793237 1.783702012 400      34.31882952 0                        
10               R1               50229            12.10419084 46.82731603 400      13.03499906 0                        
11               R1               52990            33.54266921 60.17684089 400      0.94758568 0                        
12               R1               50337            6.370282664 28.88469268 213.2570013 18.41688055 0                        
13               R1               7716             4.824320976 60.72206092 245.8444061 2.801558317 0                        
14               R1               2562             5.614806045 51.97367076 313.9281088 10.06220211 0                        
15               R1               30889            4.392445182 53.68409461 343.0791734 0.780762234 0                        
16               R1               44800            5.875520233 29.72936196 201.9873096 25.49224019 0                        
17               R1               27267            5.626942699 48.09130146 252.7428987 10.78205321 0                        
18               R1               46595            6.756477089 41.48075899 238.0977829 17.3274096 0                        
19               R1               2276             6.964794011 43.40998739 500      2.445729247 0                        
20               R1               58565            74.84723585 5.926748961 400      28.73820831 0                        
21               R1               48342            1.809747547 64.38962281 196.3455652 2.133592209 0                        
22               R1               56627            2.453839345 57.3645861 303.318483 5.224537757 0                        
23               R1               25354            16.347791 60.15848873 376.7384679 2.091764046 0                        
24               R2               J8               136.7392529 0.81502431 400      4        0                        
25               R1               38313            9.971414734 26.67894757 266.9179648 27.32156393 0                        
26               R1               31847            4.740759218 52.66356043 413.1809556 2.385881052 0                        
27               R1               56624            16.13236034 13.33065868 404.2609881 27.94698162 0                        
28               R1               25430            32.14766911 45.64873898 500      9.695153025 0                        
29               R1               18089            1.428246197 63.75089696 150.3492408 4.303892997 0                        
30               R1               23545            2.439729423 28.87544298 234.8614455 1.17347833 0                        
31               R1               18047            5.273899034 47.00969557 379.9726325 10.27077404 0                        
32               R1               42095            4.626191728 55.41356127 316.7514505 1.91627193 0                        
33               R1               2639             7.491734208 52.76045359 500      2.383154493 0                        
34               R1               41061            10.08579054 55.84532683 294.1469088 6.571679077 0                        
35               R1               33691            3.764393752 58.1059099 340.4843972 2.502320422 0                        
36               R1               32784            2.369101434 57.37834523 235.1292855 3.413503412 0                        
37               R1               46516            5.442464896 57.21574745 273.7577318 2.866642563 0                        
38               R1               J12              285.019534 0.093206635 400      29.49279649 0                        
39               R1               26629            4.821504721 42.93308382 400      11.31944206 0                        
40               R1               51447            1.796889202 65.26444349 230.281359 7.774445572 0                        
41               R1               34619            23.50986751 0        400      31.78168357 0                        
42               R1               29339            25.18703005 52.07524372 400      12.77419164 0                        
43               R1               2564             11.30645045 0.158683592 400      33.91832406 0                        
44               R1               33079            5.662908261 56.58470774 283.1134235 9.792575178 0                        
45               R1               54877            4.712422198 75.81187507 181.738361 10.83737171 0                        
46               R1               2564             4.820406543 59.97948939 361.4689022 9.180995339 0                        
47               R1               32856            3.74611016 73.67874059 250.5848449 9.0178653 0                        
48               R1               38312            10.20981084 39.93227871 400      7.954645437 0                        
49               R1               34714            7.278684259 61.33457951 274.9393466 11.6266179 0                        
50               R1               42902            7.300710873 1.474599605 260.0748573 32.39232894 0                        
51               R1               2570             4.462388826 65.70617625 287.4622975 3.205696179 0                        
52               R1               47790            11.96705174 49.06820134 394.0179198 14.2092259 0                        
53               R1               36749            3.298068649 32.12886722 275.6939701 21.1789757 0                        
54               R1               15452            6.914736059 65.90850376 192.1327056 11.98504143 0                        
55               R1               22842            10.46891606 43.23871699 368.268433 14.01245628 0                        
56               R1               8685             14.57604202 7.289334 400      29.99659999 0                        
57               R1               36587            7.186397515 56.38068612 287.6148812 15.03656872 0                        
58               R1               19022            18.24175557 50.48965135 400      13.47371249 0                        
59               R1               36513            5.541761199 58.61615029 267.7160368 9.355130215 0                        
60               R1               7792             3.000542454 66.27512006 229.0237664 10.20005574 0                        
61               R1               46533            8.812706186 49.27959815 346.2453048 8.729538441 0                        
62               R1               20748            18.75165821 57.62114314 400      4.969306881 0                        
63               R1               41136            28.94636649 59.59508223 400      11.35084752 0                        
64               R1               55704            4.131323083 10.63857967 310.6520905 28.08302572 0                        
65               R1               48455            7.111623298 54.98557019 240.6828265 12.2859432 0                        
66               R1               11448            7.121412551 30.37886608 252.202672 20.46153661 0                        
67               R1               14326            8.653818712 65.31544476 224.7427524 13.09451411 0                        
68               R1               18099            7.033202619 56.40239857 270.0457074 16.77800082 0                        
69               R1               48465            3.929655688 39.74706986 202.3597452 23.71009394 0                        
70               R1               43756            5.419065059 38.95121684 283.9928982 18.90064401 0                        
71               R1               17007            3.701810928 63.33945328 287.435246 1.229756545 0                        
72               R1               99               8.101160393 45.27106014 400      3.150903879 0                        
73               R1               100              13.59150568 25.5618759 400      10.67842504 0                        
74               R1               17009            36.58104361 49.9518791 400      0.513034194 0                        
75               R1               43757            14.84798888 49.96926038 351.9314151 3.103798958 0                        
76               R1               31848            35.2121217 21.94615359 400      12.66893273 0                        
77               R1               2283             11.92885531 27.73969292 400      0.063163121 0                        
78               R1               35543            29.20339895 45.86953124 400      0.662519556 0                        
79               R1               48348            16.14341963 55.67441413 400      0.780962719 0                        
80               R1               50187            7.536745984 34.72397236 400      0        0                        
81               R1               11459            6.630587686 53.67397184 400      0.202127771 0                        
82               R1               55040            1.503913327 50.03240953 149.3288852 12.98454078 0                        
83               R1               23469            5.719406509 0        217.7397256 33.80248846 0                        
84               R1               29985            19.80289409 4.567331708 400      27.63411142 0                        
85               R1               53065            6.598306727 0.488281567 400      30.45274774 0                        
86               R1               51140            5.966280139 0        400      32.79587617 0                        
87               R1               48405            5.063567492 0.354659927 301.7778016 32.53339197 0                        
88               R1               28217            5.643741425 45.34938012 390.845496 12.4884884 0                        
89               R1               52128            21.3431386 54.37988009 400      12.26721668 0                        
90               R1               35938            21.10621911 3.833246125 400      32.04143777 0                        
91               R1               46468            12.47686211 49.19776606 400      7.225773467 0                        
92               R1               54804            8.379104746 0.359272275 354.2603677 32.32297981 0                        
93               R1               J20              11.95255457 26.0080801 400      0.094002039 0                        
94               R1               J2               83.21662663 0        400      36.32299579 0                        
95               R1               7803             7.394075804 34.04731109 246.300007 25.74114412 0                        
96               R1               9678             14.43286193 9.212696318 400      31.66308143 0                        
97               R1               24463            5.014875437 47.90957767 366.7086881 12.80407377 0                        

[SUBAREAS]
;;Subcatchment   N-Imperv   N-Perv     S-Imperv   S-Perv     PctZero    RouteTo    PctRouted 
;;-------------- ---------- ---------- ---------- ---------- ---------- ---------- ----------
1                0.01       0.4        0.2        0.3        0          OUTLET    
2                0.01       0.4        0.2        0.3        0          OUTLET    
3                0.01       0.4        0.2        0.3        0          OUTLET    
4                0.01       0.4        0.2        0.3        0          OUTLET    
5                0.01       0.15       0.2        0.3        0          OUTLET    
6                0.01       0.15       0.2        0.3        0          OUTLET    
7                0.01       0.4        0.2        0.3        0          OUTLET    
8                0.01       0.15       0.2        0.3        0          OUTLET    
9                0.01       0.4        0.2        0.3        0          OUTLET    
10               0.01       0.4        0.2        0.3        0          OUTLET    
11               0.01       0.15       0.2        0.3        0          OUTLET    
12               0.01       0.4        0.2        0.3        0          OUTLET    
13               0.01       0.15       0.2        0.3        0          OUTLET    
14               0.01       0.15       0.2        0.3        0          OUTLET    
15               0.01       0.15       0.2        0.3        0          OUTLET    
16               0.01       0.4        0.2        0.3        0          OUTLET    
17               0.01       0.15       0.2        0.3        0          OUTLET    
18               0.01       0.4        0.2        0.3        0          OUTLET    
19               0.01       0.15       0.2        0.3        0          OUTLET    
20               0.01       0.4        0.2        0.3        0          OUTLET    
21               0.01       0.15       0.2        0.3        0          OUTLET    
22               0.01       0.15       0.2        0.3        0          OUTLET    
23               0.01       0.15       0.2        0.3        0          OUTLET    
24               0.01       0.4        0.2        0.3        0          OUTLET    
25               0.01       0.4        0.2        0.3        0          OUTLET    
26               0.01       0.15       0.2        0.3        0          OUTLET    
27               0.01       0.4        0.2        0.3        0          OUTLET    
28               0.01       0.15       0.2        0.3        0          OUTLET    
29               0.01       0.15       0.2        0.3        0          OUTLET    
30               0.01       0.15       0.2        0.3        0          OUTLET    
31               0.01       0.15       0.2        0.3        0          OUTLET    
32               0.01       0.15       0.2        0.3        0          OUTLET    
33               0.01       0.15       0.2        0.3        0          OUTLET    
34               0.01       0.15       0.2        0.3        0          OUTLET    
35               0.01       0.15       0.2        0.3        0          OUTLET    
36               0.01       0.15       0.2        0.3        0          OUTLET    
37               0.01       0.15       0.2        0.3        0          OUTLET    
38               0.01       0.4        0.2        0.3        0          OUTLET    
39               0.01       0.15       0.2        0.3        0          OUTLET    
40               0.01       0.15       0.2        0.3        0          OUTLET    
41               0.01       0.4        0.2        0.3        0          OUTLET    
42               0.01       0.15       0.2        0.3        0          OUTLET    
43               0.01       0.4        0.2        0.3        0          OUTLET    
44               0.01       0.15       0.2        0.3        0          OUTLET    
45               0.01       0.15       0.2        0.3        0          OUTLET    
46               0.01       0.15       0.2        0.3        0          OUTLET    
47               0.01       0.15       0.2        0.3        0          OUTLET    
48               0.01       0.15       0.2        0.3        0          OUTLET    
49               0.01       0.15       0.2        0.3        0          OUTLET    
50               0.01       0.4        0.2        0.3        0          OUTLET    
51               0.01       0.15       0.2        0.3        0          OUTLET    
52               0.01       0.15       0.2        0.3        0          OUTLET    
53               0.01       0.15       0.2        0.3        0          OUTLET    
54               0.01       0.15       0.2        0.3        0          OUTLET    
55               0.01       0.15       0.2        0.3        0          OUTLET    
56               0.01       0.4        0.2        0.3        0          OUTLET    
57               0.01       0.15       0.2        0.3        0          OUTLET    
58               0.01       0.15       0.2        0.3        0          OUTLET    
59               0.01       0.15       0.2        0.3        0          OUTLET    
60               0.01       0.15       0.2        0.3        0          OUTLET    
61               0.01       0.15       0.2        0.3        0          OUTLET    
62               0.01       0.15       0.2        0.3        0          OUTLET    
63               0.01       0.15       0.2        0.3        0          OUTLET    
64               0.01       0.4        0.2        0.3        0          OUTLET    
65               0.01       0.15       0.2        0.3        0          OUTLET    
66               0.01       0.4        0.2        0.3        0          OUTLET    
67               0.01       0.15       0.2        0.3        0          OUTLET    
68               0.01       0.15       0.2        0.3        0          OUTLET    
69               0.01       0.15       0.2        0.3        0          OUTLET    
70               0.01       0.15       0.2        0.3        0          OUTLET    
71               0.01       0.15       0.2        0.3        0          OUTLET    
72               0.01       0.15       0.2        0.3        0          IMPERVIOUS 100       
73               0.01       0.15       0.2        0.3        0          IMPERVIOUS 100       
74               0.01       0.15       0.2        0.3        0          OUTLET    
75               0.01       0.15       0.2        0.3        0          OUTLET    
76               0.01       0.4        0.2        0.3        0          OUTLET    
77               0.01       0.15       0.2        0.3        0          OUTLET    
78               0.01       0.15       0.2        0.3        0          OUTLET    
79               0.01       0.15       0.2        0.3        0          OUTLET    
80               0.01       0.15       0.2        0.3        0          OUTLET    
81               0.01       0.15       0.2        0.3        0          OUTLET    
82               0.01       0.15       0.2        0.3        0          OUTLET    
83               0.01       0.4        0.2        0.3        0          OUTLET    
84               0.01       0.4        0.2        0.3        0          OUTLET    
85               0.01       0.4        0.2        0.3        0          OUTLET    
86               0.01       0.4        0.2        0.3        0          OUTLET    
87               0.01       0.4        0.2        0.3        0          OUTLET    
88               0.01       0.4        0.2        0.3        0          OUTLET    
89               0.01       0.15       0.2        0.3        0          OUTLET    
90               0.01       0.4        0.2        0.3        0          OUTLET    
91               0.01       0.15       0.2        0.3        0          OUTLET    
92               0.01       0.4        0.2        0.3        0          OUTLET    
93               0.01       0.15       0.2        0.3        0          OUTLET    
94               0.01       0.4        0.2        0.3        0          OUTLET    
95               0.01       0.4        0.2        0.3        0          OUTLET    
96               0.01       0.4        0.2        0.3        0          OUTLET    
97               0.01       0.4        0.2        0.3        0          OUTLET    

[INFILTRATION]
;;Subcatchment   Param1     Param2     Param3     Param4     Param5    
;;-------------- ---------- ---------- ---------- ---------- ----------
1                50.27226696 0.5        7          7          0         
2                55.31557618 0.5        7          7          0         
3                61.06273397 0.5        7          7          0         
4                60.82817617 0.5        7          7          0         
5                59.94459387 0.5        7          7          0         
6                39.1463619 0.5        7          7          0         
7                62.46734994 0.5        7          7          0         
8                43.75794125 0.5        7          7          0         
9                64.92769033 0.5        7          7          0         
10               59.50282392 0.5        7          7          0         
11               55.59506349 0.5        7          7          0         
12               62.92827145 0.5        7          7          0         
13               37.24906666 0.5        7          7          0         
14               59.93119871 0.5        7          7          0         
15               40.48688745 0.5        7          7          0         
16               59.46640066 0.5        7          7          0         
17               58.35095289 0.5        7          7          0         
18               59.57713747 0.5        7          7          0         
19               37.69305324 0.5        7          7          0         
20               68.12691091 0.5        7          7          0         
21               41.71681727 0.5        7          7          0         
22               52.60334735 0.5        7          7          0         
23               58.75297863 0.5        7          7          0         
24               65.60653952 0.5        7          7          0         
25               61.670282  0.5        7          7          0         
26               52.48623249 0.5        7          7          0         
27               61.07520389 0.5        7          7          0         
28               58.22900794 0.5        7          7          0         
29               46.60531394 0.5        7          7          0         
30               41.09880832 0.5        7          7          0         
31               58.70699023 0.5        7          7          0         
32               36.36264424 0.5        7          7          0         
33               36.43171719 0.5        7          7          0         
34               50.45073099 0.5        7          7          0         
35               36.38428664 0.5        7          7          0         
36               36.48504283 0.5        7          7          0         
37               41.21750926 0.5        7          7          0         
38               67.5692662 0.5        7          7          0         
39               50.75785821 0.5        7          7          0         
40               46.96257513 0.5        7          7          0         
41               58.69059822 0.5        7          7          0         
42               49.94637945 0.5        7          7          0         
43               62.43704344 0.5        7          7          0         
44               46.81876804 0.5        7          7          0         
45               46.68191561 0.5        7          7          0         
46               57.85258332 0.5        7          7          0         
47               44.12992115 0.5        7          7          0         
48               58.75910367 0.5        7          7          0         
49               44.95489459 0.5        7          7          0         
50               61.80036144 0.5        7          7          0         
51               45.48179018 0.5        7          7          0         
52               46.04249877 0.5        7          7          0         
53               53.98840721 0.5        7          7          0         
54               46.30915744 0.5        7          7          0         
55               52.00221752 0.5        7          7          0         
56               61.26885146 0.5        7          7          0         
57               45.77823338 0.5        7          7          0         
58               46.82200738 0.5        7          7          0         
59               53.7404835 0.5        7          7          0         
60               58.26650801 0.5        7          7          0         
61               53.29546084 0.5        7          7          0         
62               47.1124157 0.5        7          7          0         
63               55.59826107 0.5        7          7          0         
64               62         0.5        7          7          0         
65               59.79150393 0.5        7          7          0         
66               60.8477603 0.5        7          7          0         
67               59.21464753 0.5        7          7          0         
68               64.12347737 0.5        7          7          0         
69               61.92278616 0.5        7          7          0         
70               59.24870466 0.5        7          7          0         
71               58.22480265 0.5        7          7          0         
72               59.32936266 0.5        7          7          0         
73               52.91550998 0.5        7          7          0         
74               45.63212165 0.5        7          7          0         
75               57.16000036 0.5        7          7          0         
76               61.94713271 0.5        7          7          0         
77               47.55275509 0.5        7          7          0         
78               42.51235661 0.5        7          7          0         
79               42.64163649 0.5        7          7          0         
80               42.06349546 0.5        7          7          0         
81               43.01181935 0.5        7          7          0         
82               52.36590093 0.5        7          7          0         
83               66.33976614 0.5        7          7          0         
84               62.10954935 0.5        7          7          0         
85               62         0.5        7          7          0         
86               62         0.5        7          7          0         
87               62         0.5        7          7          0         
88               58.86032285 0.5        7          7          0         
89               58.82176935 0.5        7          7          0         
90               60.40234513 0.5        7          7          0         
91               61.92057367 0.5        7          7          0         
92               61.12416364 0.5        7          7          0         
93               37.87740782 0.5        7          7          0         
94               57.41689744 0.5        7          7          0         
95               61.07100846 0.5        7          7          0         
96               60.25322483 0.5        7          7          0         
97               59.01045859 0.5        7          7          0         

[JUNCTIONS]
;;Name           Elevation  MaxDepth   InitDepth  SurDepth   Aponded   
;;-------------- ---------- ---------- ---------- ---------- ----------
2196             28.0249901 9.5        0          0          0         
2197             55.2328415 4.5        0          0          0         
2204             45.0578499 3.8        0          0          0         
2205             15.4320583 9.3        0          0          0         
2276             8.7544622  0          0          0          0         
2277             9.3730545  0          0          0          0         
2279             31.4766293 0          0          0          0         
2282             -0.8106122 5.4        0          0          0         
2283             3.2522726  3.3        0          0          0         
2284             5.6033392  0          0          0          0         
2290             1.1018652  0          0          0          0         